TITLE Pure Water with Calcite Equilibration
SOLUTION 1
    units   mol/kgw
    temp    25.0
    pH      7.0
    pe      4.0
    redox   pe
    units   mol/kgw
    density 1.0
    water   1.0 # kg

EQUILIBRIUM_PHASES 1
    Calcite 0.0

END