TITLE Pure Water
SOLUTION 1
    units   mol/kgw
    temp    25.0
    pH      7.0
    pe      4.0
    redox   pe
    units   mol/kgw
    density 1.0
    water   1.0 # kg

EQUILIBRIUM PHASES
    Calcite 0

END