TITLE Pure Water
SOLUTION 1
    units   mol/kgw
    temp    25.0
    pH      7.0
    pe      4.0
    redox   pe
    units   mol/kgw
    density 1.0
    water   1.0 # kg

EQUILIBRIUM PHASES
    CO2(g)  -3.376 # log10(420e-6) = -3.376

END 